* NGSPICE file created from sky130_am_ip__ldo_01v8.ext - technology: sky130A

.subckt sky130_fd_pr__nfet_g5v0d10v5_UNEQ2N a_n252_n322# a_50_n100# a_n108_n100# a_n50_n188#
X0 a_50_n100# a_n50_n188# a_n108_n100# a_n252_n322# sky130_fd_pr__nfet_g5v0d10v5 ad=0.29 pd=2.58 as=0.29 ps=2.58 w=1 l=0.5
.ends

.subckt sky130_fd_pr__pfet_g5v0d10v5_BWAZV5 a_n700_n197# a_700_n100# w_n958_n397#
+ a_n758_n100#
X0 a_700_n100# a_n700_n197# a_n758_n100# w_n958_n397# sky130_fd_pr__pfet_g5v0d10v5 ad=0.29 pd=2.58 as=0.29 ps=2.58 w=1 l=7
.ends

.subckt sky130_fd_pr__nfet_g5v0d10v5_A2FZRM a_n900_n188# a_n900_n1024# a_900_n518#
+ a_n900_648# a_n958_318# a_n958_n518# a_900_736# a_n1102_n1158# a_900_n100# a_900_n936#
+ a_900_318# a_n900_230# a_n958_n100# a_n958_736# a_n958_n936# a_n900_n606#
X0 a_900_n100# a_n900_n188# a_n958_n100# a_n1102_n1158# sky130_fd_pr__nfet_g5v0d10v5 ad=0.29 pd=2.58 as=0.29 ps=2.58 w=1 l=9
X1 a_900_n518# a_n900_n606# a_n958_n518# a_n1102_n1158# sky130_fd_pr__nfet_g5v0d10v5 ad=0.29 pd=2.58 as=0.29 ps=2.58 w=1 l=9
X2 a_900_318# a_n900_230# a_n958_318# a_n1102_n1158# sky130_fd_pr__nfet_g5v0d10v5 ad=0.29 pd=2.58 as=0.29 ps=2.58 w=1 l=9
X3 a_900_n936# a_n900_n1024# a_n958_n936# a_n1102_n1158# sky130_fd_pr__nfet_g5v0d10v5 ad=0.29 pd=2.58 as=0.29 ps=2.58 w=1 l=9
X4 a_900_736# a_n900_648# a_n958_736# a_n1102_n1158# sky130_fd_pr__nfet_g5v0d10v5 ad=0.29 pd=2.58 as=0.29 ps=2.58 w=1 l=9
.ends

.subckt sky130_fd_pr__pfet_g5v0d10v5_KLAZY6 a_n50_n197# a_50_n100# w_n308_n397# a_n108_n100#
X0 a_50_n100# a_n50_n197# a_n108_n100# w_n308_n397# sky130_fd_pr__pfet_g5v0d10v5 ad=0.29 pd=2.58 as=0.29 ps=2.58 w=1 l=0.5
.ends

.subckt sky130_fd_pr__pfet_g5v0d10v5_PC2PN5 w_n1258_n397# a_n1000_n197# a_1000_n100#
+ a_n1058_n100#
X0 a_1000_n100# a_n1000_n197# a_n1058_n100# w_n1258_n397# sky130_fd_pr__pfet_g5v0d10v5 ad=0.29 pd=2.58 as=0.29 ps=2.58 w=1 l=10
.ends

.subckt sky130_fd_sc_hvl__lsbuflv2hv_1 A LVPWR VGND VNB VPB VPWR X
X0 VGND a_404_1133# a_504_1221# VNB sky130_fd_pr__nfet_g5v0d10v5 ad=0.21 pd=1.78 as=0.21 ps=1.78 w=1.5 l=0.5
X1 a_504_1221# a_404_1133# VGND VNB sky130_fd_pr__nfet_g5v0d10v5 ad=0.21 pd=1.78 as=0.21 ps=1.78 w=1.5 l=0.5
X2 X a_1711_885# VPWR VPB sky130_fd_pr__pfet_g5v0d10v5 ad=0.3975 pd=3.53 as=0.24375 ps=1.825 w=1.5 l=0.5
X3 X a_1711_885# VGND VNB sky130_fd_pr__nfet_g5v0d10v5 ad=0.19875 pd=2.03 as=0.121875 ps=1.075 w=0.75 l=0.5
X4 VGND A a_404_1133# VNB sky130_fd_pr__nfet_01v8 ad=0.1176 pd=1.12 as=0.2478 ps=2.27 w=0.84 l=0.15
X5 a_1197_107# a_772_151# VGND VNB sky130_fd_pr__nfet_g5v0d10v5 ad=0.21 pd=1.78 as=0.21 ps=1.78 w=1.5 l=0.5
X6 VPWR a_1197_107# a_504_1221# VPB sky130_fd_pr__pfet_g5v0d10v5 ad=0.2142 pd=1.99 as=0.2142 ps=1.99 w=0.42 l=1
X7 a_504_1221# a_404_1133# VGND VNB sky130_fd_pr__nfet_g5v0d10v5 ad=0.3975 pd=3.53 as=0.21 ps=1.78 w=1.5 l=0.5
X8 a_1197_107# a_772_151# VGND VNB sky130_fd_pr__nfet_g5v0d10v5 ad=0.3975 pd=3.53 as=0.21 ps=1.78 w=1.5 l=0.5
X9 a_772_151# a_404_1133# VGND VNB sky130_fd_pr__nfet_01v8 ad=0.2478 pd=2.27 as=0.1176 ps=1.12 w=0.84 l=0.15
X10 a_504_1221# a_404_1133# VGND VNB sky130_fd_pr__nfet_g5v0d10v5 ad=0.21 pd=1.78 as=0.3975 ps=3.53 w=1.5 l=0.5
X11 VGND a_404_1133# a_504_1221# VNB sky130_fd_pr__nfet_g5v0d10v5 ad=0.21 pd=1.78 as=0.21 ps=1.78 w=1.5 l=0.5
X12 LVPWR A a_404_1133# LVPWR sky130_fd_pr__pfet_01v8_hvt ad=0.1176 pd=1.12 as=0.2478 ps=2.27 w=0.84 l=0.15
X13 VGND a_772_151# a_1197_107# VNB sky130_fd_pr__nfet_g5v0d10v5 ad=0.21 pd=1.78 as=0.21 ps=1.78 w=1.5 l=0.5
X14 VPWR a_504_1221# a_1711_885# VPB sky130_fd_pr__pfet_g5v0d10v5 ad=0.24375 pd=1.825 as=0.3975 ps=3.53 w=1.5 l=0.5
X15 VGND a_504_1221# a_1711_885# VNB sky130_fd_pr__nfet_g5v0d10v5 ad=0.121875 pd=1.075 as=0.19875 ps=2.03 w=0.75 l=0.5
X16 VGND a_772_151# a_1197_107# VNB sky130_fd_pr__nfet_g5v0d10v5 ad=0.21 pd=1.78 as=0.21 ps=1.78 w=1.5 l=0.5
X17 a_772_151# a_404_1133# LVPWR LVPWR sky130_fd_pr__pfet_01v8_hvt ad=0.2478 pd=2.27 as=0.1176 ps=1.12 w=0.84 l=0.15
X18 a_1197_107# a_772_151# VGND VNB sky130_fd_pr__nfet_g5v0d10v5 ad=0.21 pd=1.78 as=0.3975 ps=3.53 w=1.5 l=0.5
X19 VPWR a_504_1221# a_1197_107# VPB sky130_fd_pr__pfet_g5v0d10v5 ad=0.1113 pd=1.37 as=0.1365 ps=1.49 w=0.42 l=1
.ends

.subckt sky130_fd_pr__nfet_g5v0d10v5_69K6TN a_700_n100# a_n758_n100# a_n700_n188#
+ a_n902_n322#
X0 a_700_n100# a_n700_n188# a_n758_n100# a_n902_n322# sky130_fd_pr__nfet_g5v0d10v5 ad=0.29 pd=2.58 as=0.29 ps=2.58 w=1 l=7
.ends

.subckt sky130_fd_pr__res_xhigh_po_0p35_QZEXQH a_1044_n1416# a_214_n1416# a_n1114_n1416#
+ a_546_984# a_n1114_984# a_n118_984# a_48_n1416# a_1376_n1416# a_n450_984# a_n782_n1416#
+ a_878_984# a_546_n1416# a_n1446_984# a_712_984# a_n1446_n1416# a_n284_n1416# a_n616_n1416#
+ a_n782_984# a_1210_n1416# a_1044_984# a_878_n1416# a_n118_n1416# a_n616_984# a_48_984#
+ a_380_984# a_1376_984# a_n948_n1416# a_n1576_n1546# a_380_n1416# a_n948_984# a_712_n1416#
+ a_1210_984# a_214_984# a_n1280_n1416# a_n284_984# a_n450_n1416# a_n1280_984#
X0 a_n1280_984# a_n1280_n1416# a_n1576_n1546# sky130_fd_pr__res_xhigh_po_0p35 l=10
X1 a_n948_984# a_n948_n1416# a_n1576_n1546# sky130_fd_pr__res_xhigh_po_0p35 l=10
X2 a_1210_984# a_1210_n1416# a_n1576_n1546# sky130_fd_pr__res_xhigh_po_0p35 l=10
X3 a_n616_984# a_n616_n1416# a_n1576_n1546# sky130_fd_pr__res_xhigh_po_0p35 l=10
X4 a_380_984# a_380_n1416# a_n1576_n1546# sky130_fd_pr__res_xhigh_po_0p35 l=10
X5 a_878_984# a_878_n1416# a_n1576_n1546# sky130_fd_pr__res_xhigh_po_0p35 l=10
X6 a_546_984# a_546_n1416# a_n1576_n1546# sky130_fd_pr__res_xhigh_po_0p35 l=10
X7 a_n1446_984# a_n1446_n1416# a_n1576_n1546# sky130_fd_pr__res_xhigh_po_0p35 l=10
X8 a_1376_984# a_1376_n1416# a_n1576_n1546# sky130_fd_pr__res_xhigh_po_0p35 l=10
X9 a_214_984# a_214_n1416# a_n1576_n1546# sky130_fd_pr__res_xhigh_po_0p35 l=10
X10 a_n1114_984# a_n1114_n1416# a_n1576_n1546# sky130_fd_pr__res_xhigh_po_0p35 l=10
X11 a_n284_984# a_n284_n1416# a_n1576_n1546# sky130_fd_pr__res_xhigh_po_0p35 l=10
X12 a_1044_984# a_1044_n1416# a_n1576_n1546# sky130_fd_pr__res_xhigh_po_0p35 l=10
X13 a_n450_984# a_n450_n1416# a_n1576_n1546# sky130_fd_pr__res_xhigh_po_0p35 l=10
X14 a_48_984# a_48_n1416# a_n1576_n1546# sky130_fd_pr__res_xhigh_po_0p35 l=10
X15 a_712_984# a_712_n1416# a_n1576_n1546# sky130_fd_pr__res_xhigh_po_0p35 l=10
X16 a_n782_984# a_n782_n1416# a_n1576_n1546# sky130_fd_pr__res_xhigh_po_0p35 l=10
X17 a_n118_984# a_n118_n1416# a_n1576_n1546# sky130_fd_pr__res_xhigh_po_0p35 l=10
.ends

.subckt sky130_fd_pr__res_xhigh_po_0p35_Z7JM9H a_1044_n1416# a_214_n1416# a_n2276_984#
+ a_n2110_n1416# a_1542_984# a_n1114_n1416# a_2870_n1416# a_546_984# a_n1114_984#
+ a_n118_984# a_n2110_984# a_1874_n1416# a_2538_984# a_48_n1416# a_n2940_n1416# a_2372_n1416#
+ a_n1944_n1416# a_1874_984# a_n782_n1416# a_n450_984# a_1376_n1416# a_2870_984# a_878_984#
+ a_2704_n1416# a_546_n1416# a_n1446_984# a_n2442_984# a_1708_n1416# a_n2442_n1416#
+ a_n1446_n1416# a_712_984# a_n284_n1416# a_1708_984# a_2206_n1416# a_2704_984# a_n782_984#
+ a_n616_n1416# a_n1778_984# a_n2774_984# a_1210_n1416# a_1044_984# a_2040_984# a_n1612_984#
+ a_878_n1416# a_n118_n1416# a_n616_984# a_n2774_n1416# a_n2608_984# a_n1778_n1416#
+ a_48_984# a_2538_n1416# a_380_984# a_1376_984# a_n948_n1416# a_2372_984# a_n1944_984#
+ a_380_n1416# a_n2276_n1416# a_n948_984# a_n3070_n1546# a_n2940_984# a_1542_n1416#
+ a_712_n1416# a_n2608_n1416# a_1210_984# a_n1280_n1416# a_214_984# a_2040_n1416#
+ a_n1612_n1416# a_n1280_984# a_2206_984# a_n450_n1416# a_n284_984#
X0 a_1542_984# a_1542_n1416# a_n3070_n1546# sky130_fd_pr__res_xhigh_po_0p35 l=10
X1 a_n1280_984# a_n1280_n1416# a_n3070_n1546# sky130_fd_pr__res_xhigh_po_0p35 l=10
X2 a_n948_984# a_n948_n1416# a_n3070_n1546# sky130_fd_pr__res_xhigh_po_0p35 l=10
X3 a_2704_984# a_2704_n1416# a_n3070_n1546# sky130_fd_pr__res_xhigh_po_0p35 l=10
X4 a_1210_984# a_1210_n1416# a_n3070_n1546# sky130_fd_pr__res_xhigh_po_0p35 l=10
X5 a_1708_984# a_1708_n1416# a_n3070_n1546# sky130_fd_pr__res_xhigh_po_0p35 l=10
X6 a_n616_984# a_n616_n1416# a_n3070_n1546# sky130_fd_pr__res_xhigh_po_0p35 l=10
X7 a_n2774_984# a_n2774_n1416# a_n3070_n1546# sky130_fd_pr__res_xhigh_po_0p35 l=10
X8 a_n2110_984# a_n2110_n1416# a_n3070_n1546# sky130_fd_pr__res_xhigh_po_0p35 l=10
X9 a_380_984# a_380_n1416# a_n3070_n1546# sky130_fd_pr__res_xhigh_po_0p35 l=10
X10 a_878_984# a_878_n1416# a_n3070_n1546# sky130_fd_pr__res_xhigh_po_0p35 l=10
X11 a_n1778_984# a_n1778_n1416# a_n3070_n1546# sky130_fd_pr__res_xhigh_po_0p35 l=10
X12 a_n2442_984# a_n2442_n1416# a_n3070_n1546# sky130_fd_pr__res_xhigh_po_0p35 l=10
X13 a_n2940_984# a_n2940_n1416# a_n3070_n1546# sky130_fd_pr__res_xhigh_po_0p35 l=10
X14 a_546_984# a_546_n1416# a_n3070_n1546# sky130_fd_pr__res_xhigh_po_0p35 l=10
X15 a_n1446_984# a_n1446_n1416# a_n3070_n1546# sky130_fd_pr__res_xhigh_po_0p35 l=10
X16 a_2372_984# a_2372_n1416# a_n3070_n1546# sky130_fd_pr__res_xhigh_po_0p35 l=10
X17 a_1376_984# a_1376_n1416# a_n3070_n1546# sky130_fd_pr__res_xhigh_po_0p35 l=10
X18 a_n2608_984# a_n2608_n1416# a_n3070_n1546# sky130_fd_pr__res_xhigh_po_0p35 l=10
X19 a_214_984# a_214_n1416# a_n3070_n1546# sky130_fd_pr__res_xhigh_po_0p35 l=10
X20 a_n1114_984# a_n1114_n1416# a_n3070_n1546# sky130_fd_pr__res_xhigh_po_0p35 l=10
X21 a_n284_984# a_n284_n1416# a_n3070_n1546# sky130_fd_pr__res_xhigh_po_0p35 l=10
X22 a_2040_984# a_2040_n1416# a_n3070_n1546# sky130_fd_pr__res_xhigh_po_0p35 l=10
X23 a_2538_984# a_2538_n1416# a_n3070_n1546# sky130_fd_pr__res_xhigh_po_0p35 l=10
X24 a_1044_984# a_1044_n1416# a_n3070_n1546# sky130_fd_pr__res_xhigh_po_0p35 l=10
X25 a_n1944_984# a_n1944_n1416# a_n3070_n1546# sky130_fd_pr__res_xhigh_po_0p35 l=10
X26 a_n450_984# a_n450_n1416# a_n3070_n1546# sky130_fd_pr__res_xhigh_po_0p35 l=10
X27 a_48_984# a_48_n1416# a_n3070_n1546# sky130_fd_pr__res_xhigh_po_0p35 l=10
X28 a_2206_984# a_2206_n1416# a_n3070_n1546# sky130_fd_pr__res_xhigh_po_0p35 l=10
X29 a_2870_984# a_2870_n1416# a_n3070_n1546# sky130_fd_pr__res_xhigh_po_0p35 l=10
X30 a_712_984# a_712_n1416# a_n3070_n1546# sky130_fd_pr__res_xhigh_po_0p35 l=10
X31 a_1874_984# a_1874_n1416# a_n3070_n1546# sky130_fd_pr__res_xhigh_po_0p35 l=10
X32 a_n1612_984# a_n1612_n1416# a_n3070_n1546# sky130_fd_pr__res_xhigh_po_0p35 l=10
X33 a_n782_984# a_n782_n1416# a_n3070_n1546# sky130_fd_pr__res_xhigh_po_0p35 l=10
X34 a_n2276_984# a_n2276_n1416# a_n3070_n1546# sky130_fd_pr__res_xhigh_po_0p35 l=10
X35 a_n118_984# a_n118_n1416# a_n3070_n1546# sky130_fd_pr__res_xhigh_po_0p35 l=10
.ends

.subckt sky130_fd_pr__res_xhigh_po_0p35_743D3R a_n248_n2546# a_48_n2416# a_n118_1984#
+ a_n118_n2416# a_48_1984#
X0 a_48_1984# a_48_n2416# a_n248_n2546# sky130_fd_pr__res_xhigh_po_0p35 l=20
X1 a_n118_1984# a_n118_n2416# a_n248_n2546# sky130_fd_pr__res_xhigh_po_0p35 l=20
.ends

.subckt sky130_fd_pr__cap_mim_m3_1_MRZGNS c1_n1646_n1500# m3_n1686_n1540#
X0 c1_n1646_n1500# m3_n1686_n1540# sky130_fd_pr__cap_mim_m3_1 l=15 w=15
.ends

.subckt sky130_fd_pr__cap_mim_m3_1_VCAG9S m3_n686_n540# c1_n646_n500#
X0 c1_n646_n500# m3_n686_n540# sky130_fd_pr__cap_mim_m3_1 l=5 w=5
.ends

.subckt sky130_fd_pr__nfet_g5v0d10v5_PXBJUB a_n1000_n188# a_n1192_n322# a_1000_n100#
+ a_n1058_n100#
X0 a_1000_n100# a_n1000_n188# a_n1058_n100# a_n1192_n322# sky130_fd_pr__nfet_g5v0d10v5 ad=0.29 pd=2.58 as=0.29 ps=2.58 w=1 l=10
.ends

.subckt sky130_fd_pr__pfet_g5v0d10v5_47NWVV a_n258_n100# a_n200_n197# a_200_n100#
+ w_n458_n397#
X0 a_200_n100# a_n200_n197# a_n258_n100# w_n458_n397# sky130_fd_pr__pfet_g5v0d10v5 ad=0.29 pd=2.58 as=0.29 ps=2.58 w=1 l=2
.ends

.subckt sky130_fd_pr__nfet_g5v0d10v5_YHRXVR a_n129_n2415# a_819_2457# a_n977_2545#
+ a_n1609_n4763# a_n1135_n1109# a_n1551_21# a_n503_n4763# a_603_n3545# a_1235_109#
+ a_n1609_n1109# a_n29_4981# a_445_3763# a_n1135_109# a_n1077_2457# a_n1235_n2415#
+ a_n503_n1109# a_1393_4981# a_n29_1327# a_345_2457# a_1235_n3545# a_977_n3633# a_n761_3675#
+ a_n603_n2415# a_1393_1327# a_1293_3675# a_n919_2457# a_977_21# a_n345_n4763# a_445_n3545#
+ a_n503_2545# a_129_2545# a_n1077_n2415# a_n187_4981# a_n1293_2545# a_n819_n4763#
+ a_919_n3545# a_n345_n1109# a_n1551_3675# a_187_21# a_1077_3763# a_n1451_n4763# a_29_n4851#
+ a_1077_n3545# a_977_2457# a_n187_1327# a_n819_n1109# a_503_n2415# a_n129_n1197#
+ a_n445_n2415# a_n445_2457# a_n1451_n1109# a_n977_109# a_1077_109# a_n919_n2415#
+ a_n1235_n1197# a_1135_n2415# a_n1551_n2415# a_29_4893# a_n187_n4763# a_287_n3545#
+ a_1451_21# a_29_1239# a_1551_n3545# a_n187_n1109# a_603_3763# a_n603_n1197# a_n1293_n4763#
+ a_n1235_2457# a_n129_4893# a_345_n2415# a_1551_4981# a_n287_n2415# a_129_109# a_n1293_n1109#
+ a_n129_1239# a_503_2457# a_n661_2545# a_n445_21# a_819_n2415# a_29_n6069# a_287_2545#
+ a_n661_n4763# a_761_n3545# a_1551_1327# a_n819_4981# a_n29_n3545# a_187_4893# a_1451_3675#
+ a_n1077_n1197# a_n1393_n2415# a_n661_n1109# a_n819_1327# a_187_1239# a_1393_n3545#
+ a_503_n1197# a_n445_n1197# a_n761_n2415# a_n345_4981# a_n1451_2545# a_187_n2415#
+ a_n919_n1197# a_n1609_109# a_n1609_4981# a_1235_3763# a_1135_n1197# a_n345_1327#
+ a_n1551_n1197# a_1451_n2415# a_n603_2457# a_n1609_1327# a_129_n5981# a_1135_2457#
+ a_n1077_21# a_761_3763# a_n977_n4763# a_n1393_2457# a_n287_4893# a_129_n2327# a_345_n1197#
+ a_n1135_4981# a_n977_n1109# a_661_n2415# a_n287_1239# a_661_2457# a_n29_109# a_n287_n1197#
+ a_919_2545# a_1551_109# a_819_n1197# a_n129_n4851# a_819_4893# a_n1135_1327# a_n977_4981#
+ a_n1451_109# a_n1135_n3545# a_345_21# a_29_21# a_n1393_n1197# a_1293_n2415# a_603_n5981#
+ a_819_1239# a_n977_1327# a_n1609_n3545# a_n1077_4893# a_n1235_n4851# a_603_n2327#
+ a_n503_n3545# a_n29_3763# a_445_2545# a_n1077_1239# a_n503_109# a_n761_n1197# a_1235_n5981#
+ a_345_4893# a_187_n1197# a_1393_3763# a_n603_n4851# a_603_109# a_345_1239# a_1235_n2327#
+ a_1451_n1197# a_977_n2415# a_n761_2457# a_1293_2457# a_n919_4893# a_n503_4981# a_445_n5981#
+ a_129_4981# a_n1077_n4851# a_n129_n6069# a_n1293_4981# a_n919_1239# a_919_n5981#
+ a_n503_1327# a_n603_21# a_445_n2327# a_n345_n3545# a_661_n1197# a_129_1327# a_1077_n5981#
+ a_n187_3763# a_n1293_1327# a_1393_109# a_n819_n3545# a_977_4893# a_919_n2327# a_503_n4851#
+ a_n1293_109# a_n1235_n6069# a_n445_n4851# a_n1551_2457# a_1077_2545# a_n445_4893#
+ a_29_n3633# a_n1451_n3545# a_1077_n2327# a_977_1239# a_1293_n1197# a_n919_n4851#
+ a_n445_1239# a_1135_n4851# a_n1551_n4851# a_n603_n6069# a_287_n5981# a_n345_109#
+ a_29_3675# a_1551_n5981# a_287_n2327# a_n187_n3545# a_445_109# a_n1235_4893# a_1551_n2327#
+ a_345_n4851# a_977_n1197# a_n1077_n6069# a_n287_n4851# a_n1235_21# a_603_2545# a_n129_3675#
+ a_n1235_1239# a_n1293_n3545# a_503_4893# a_n661_4981# a_819_n4851# a_287_4981# a_761_n5981#
+ a_1551_3763# a_n29_n5981# a_503_n6069# a_503_1239# a_n661_1327# a_n1393_n4851# a_n445_n6069#
+ a_287_1327# a_761_n2327# a_n661_n3545# a_n819_3763# a_187_3675# a_n29_n2327# a_1451_2457#
+ a_503_21# a_n919_n6069# a_1393_n5981# a_1135_n6069# a_n1551_n6069# a_n761_n4851#
+ a_n1451_4981# a_1393_n2327# a_187_n4851# a_n345_3763# a_n1451_1327# a_1451_n4851#
+ a_n187_109# a_n1609_3763# a_1235_2545# a_n603_4893# a_345_n6069# a_n287_n6069# a_1135_4893#
+ a_287_109# a_n1393_4893# a_819_n6069# a_n603_1239# a_129_n4763# a_1135_1239# a_761_2545#
+ a_n977_n3545# a_661_n4851# a_n287_3675# a_n1393_1239# a_n1393_n6069# a_661_4893#
+ a_919_4981# a_129_n1109# a_n1135_3763# a_n1135_n5981# a_661_1239# a_919_1327# a_n129_n3633#
+ a_1293_n4851# a_819_3675# a_n977_3763# a_n1609_n5981# a_n761_n6069# a_n1135_n2327#
+ a_1135_21# a_187_n6069# a_n503_n5981# a_603_n4763# a_n919_21# a_n1609_n2327# a_445_4981#
+ a_n1077_3675# a_n1235_n3633# a_1451_n6069# a_603_n1109# a_n503_n2327# a_n761_21#
+ a_n1753_n6203# a_n29_2545# a_445_1327# a_345_3675# a_n129_21# a_1235_n4763# a_977_n4851#
+ a_n603_n3633# a_n761_4893# a_1393_2545# a_n819_109# a_1293_4893# a_1235_n1109# a_661_n6069#
+ a_919_109# a_n761_1239# a_1293_1239# a_n919_3675# a_n345_n5981# a_n503_3763# a_445_n4763#
+ a_129_3763# a_n1077_n3633# a_1293_n6069# a_n1293_3763# a_n819_n5981# a_919_n4763#
+ a_445_n1109# a_n345_n2327# a_1077_4981# a_n1551_4893# a_n1451_n5981# a_1077_n4763#
+ a_977_3675# a_n187_2545# a_919_n1109# a_n819_n2327# a_503_n3633# a_n445_n3633# a_n661_109#
+ a_n445_3675# a_n1551_1239# a_1077_1327# a_n1393_21# a_29_n2415# a_n1451_n2327# a_1077_n1109#
+ a_761_109# a_n919_n3633# a_1135_n3633# a_n1551_n3633# a_977_n6069# a_819_21# a_n187_n5981#
+ a_287_n4763# a_661_21# a_29_2457# a_n187_n2327# a_1551_n4763# a_287_n1109# a_603_4981#
+ a_n1235_3675# a_n1293_n5981# a_345_n3633# a_1551_n1109# a_n287_n3633# a_603_1327#
+ a_n129_2457# a_n1293_n2327# a_503_3675# a_n661_3763# a_819_n3633# a_287_3763# a_n661_n5981#
+ a_761_n4763# a_1551_2545# a_n29_n4763# a_1451_4893# a_n1393_n3633# a_n661_n2327#
+ a_761_n1109# a_n819_2545# a_187_2457# a_1451_1239# a_n29_n1109# a_1393_n4763# a_n761_n3633#
+ a_29_n1197# a_n1451_3763# a_187_n3633# a_1393_n1109# a_1235_4981# a_1451_n3633#
+ a_n345_2545# a_n603_3675# a_n1609_2545# a_1235_1327# a_1293_21# a_1135_3675# a_761_4981#
+ a_n977_n5981# a_n1393_3675# a_129_n3545# a_761_1327# a_n977_n2327# a_661_n3633#
+ a_n287_2457# a_661_3675# a_919_3763# a_n287_21# a_n1135_2545# a_n1135_n4763# a_1293_n3633#
X0 a_919_4981# a_819_4893# a_761_4981# a_n1753_n6203# sky130_fd_pr__nfet_g5v0d10v5 ad=0.725 pd=5.29 as=0.725 ps=5.29 w=5 l=0.5
X1 a_287_2545# a_187_2457# a_129_2545# a_n1753_n6203# sky130_fd_pr__nfet_g5v0d10v5 ad=0.725 pd=5.29 as=0.725 ps=5.29 w=5 l=0.5
X2 a_n1293_n5981# a_n1393_n6069# a_n1451_n5981# a_n1753_n6203# sky130_fd_pr__nfet_g5v0d10v5 ad=0.725 pd=5.29 as=0.725 ps=5.29 w=5 l=0.5
X3 a_n661_109# a_n761_21# a_n819_109# a_n1753_n6203# sky130_fd_pr__nfet_g5v0d10v5 ad=0.725 pd=5.29 as=0.725 ps=5.29 w=5 l=0.5
X4 a_n29_n5981# a_n129_n6069# a_n187_n5981# a_n1753_n6203# sky130_fd_pr__nfet_g5v0d10v5 ad=0.725 pd=5.29 as=0.725 ps=5.29 w=5 l=0.5
X5 a_n187_n4763# a_n287_n4851# a_n345_n4763# a_n1753_n6203# sky130_fd_pr__nfet_g5v0d10v5 ad=0.725 pd=5.29 as=0.725 ps=5.29 w=5 l=0.5
X6 a_1551_n5981# a_1451_n6069# a_1393_n5981# a_n1753_n6203# sky130_fd_pr__nfet_g5v0d10v5 ad=1.45 pd=10.58 as=0.725 ps=5.29 w=5 l=0.5
X7 a_129_n2327# a_29_n2415# a_n29_n2327# a_n1753_n6203# sky130_fd_pr__nfet_g5v0d10v5 ad=0.725 pd=5.29 as=0.725 ps=5.29 w=5 l=0.5
X8 a_n187_4981# a_n287_4893# a_n345_4981# a_n1753_n6203# sky130_fd_pr__nfet_g5v0d10v5 ad=0.725 pd=5.29 as=0.725 ps=5.29 w=5 l=0.5
X9 a_761_4981# a_661_4893# a_603_4981# a_n1753_n6203# sky130_fd_pr__nfet_g5v0d10v5 ad=0.725 pd=5.29 as=0.725 ps=5.29 w=5 l=0.5
X10 a_n1293_2545# a_n1393_2457# a_n1451_2545# a_n1753_n6203# sky130_fd_pr__nfet_g5v0d10v5 ad=0.725 pd=5.29 as=0.725 ps=5.29 w=5 l=0.5
X11 a_1393_2545# a_1293_2457# a_1235_2545# a_n1753_n6203# sky130_fd_pr__nfet_g5v0d10v5 ad=0.725 pd=5.29 as=0.725 ps=5.29 w=5 l=0.5
X12 a_129_109# a_29_21# a_n29_109# a_n1753_n6203# sky130_fd_pr__nfet_g5v0d10v5 ad=0.725 pd=5.29 as=0.725 ps=5.29 w=5 l=0.5
X13 a_445_n1109# a_345_n1197# a_287_n1109# a_n1753_n6203# sky130_fd_pr__nfet_g5v0d10v5 ad=0.725 pd=5.29 as=0.725 ps=5.29 w=5 l=0.5
X14 a_287_3763# a_187_3675# a_129_3763# a_n1753_n6203# sky130_fd_pr__nfet_g5v0d10v5 ad=0.725 pd=5.29 as=0.725 ps=5.29 w=5 l=0.5
X15 a_n187_109# a_n287_21# a_n345_109# a_n1753_n6203# sky130_fd_pr__nfet_g5v0d10v5 ad=0.725 pd=5.29 as=0.725 ps=5.29 w=5 l=0.5
X16 a_n187_n5981# a_n287_n6069# a_n345_n5981# a_n1753_n6203# sky130_fd_pr__nfet_g5v0d10v5 ad=0.725 pd=5.29 as=0.725 ps=5.29 w=5 l=0.5
X17 a_129_n3545# a_29_n3633# a_n29_n3545# a_n1753_n6203# sky130_fd_pr__nfet_g5v0d10v5 ad=0.725 pd=5.29 as=0.725 ps=5.29 w=5 l=0.5
X18 a_n1293_3763# a_n1393_3675# a_n1451_3763# a_n1753_n6203# sky130_fd_pr__nfet_g5v0d10v5 ad=0.725 pd=5.29 as=0.725 ps=5.29 w=5 l=0.5
X19 a_1393_3763# a_1293_3675# a_1235_3763# a_n1753_n6203# sky130_fd_pr__nfet_g5v0d10v5 ad=0.725 pd=5.29 as=0.725 ps=5.29 w=5 l=0.5
X20 a_n345_1327# a_n445_1239# a_n503_1327# a_n1753_n6203# sky130_fd_pr__nfet_g5v0d10v5 ad=0.725 pd=5.29 as=0.725 ps=5.29 w=5 l=0.5
X21 a_445_n2327# a_345_n2415# a_287_n2327# a_n1753_n6203# sky130_fd_pr__nfet_g5v0d10v5 ad=0.725 pd=5.29 as=0.725 ps=5.29 w=5 l=0.5
X22 a_287_4981# a_187_4893# a_129_4981# a_n1753_n6203# sky130_fd_pr__nfet_g5v0d10v5 ad=0.725 pd=5.29 as=0.725 ps=5.29 w=5 l=0.5
X23 a_919_n1109# a_819_n1197# a_761_n1109# a_n1753_n6203# sky130_fd_pr__nfet_g5v0d10v5 ad=0.725 pd=5.29 as=0.725 ps=5.29 w=5 l=0.5
X24 a_n819_109# a_n919_21# a_n977_109# a_n1753_n6203# sky130_fd_pr__nfet_g5v0d10v5 ad=0.725 pd=5.29 as=0.725 ps=5.29 w=5 l=0.5
X25 a_129_n4763# a_29_n4851# a_n29_n4763# a_n1753_n6203# sky130_fd_pr__nfet_g5v0d10v5 ad=0.725 pd=5.29 as=0.725 ps=5.29 w=5 l=0.5
X26 a_n1293_4981# a_n1393_4893# a_n1451_4981# a_n1753_n6203# sky130_fd_pr__nfet_g5v0d10v5 ad=0.725 pd=5.29 as=0.725 ps=5.29 w=5 l=0.5
X27 a_1393_4981# a_1293_4893# a_1235_4981# a_n1753_n6203# sky130_fd_pr__nfet_g5v0d10v5 ad=0.725 pd=5.29 as=0.725 ps=5.29 w=5 l=0.5
X28 a_129_1327# a_29_1239# a_n29_1327# a_n1753_n6203# sky130_fd_pr__nfet_g5v0d10v5 ad=0.725 pd=5.29 as=0.725 ps=5.29 w=5 l=0.5
X29 a_n345_109# a_n445_21# a_n503_109# a_n1753_n6203# sky130_fd_pr__nfet_g5v0d10v5 ad=0.725 pd=5.29 as=0.725 ps=5.29 w=5 l=0.5
X30 a_n345_2545# a_n445_2457# a_n503_2545# a_n1753_n6203# sky130_fd_pr__nfet_g5v0d10v5 ad=0.725 pd=5.29 as=0.725 ps=5.29 w=5 l=0.5
X31 a_445_n3545# a_345_n3633# a_287_n3545# a_n1753_n6203# sky130_fd_pr__nfet_g5v0d10v5 ad=0.725 pd=5.29 as=0.725 ps=5.29 w=5 l=0.5
X32 a_1077_n1109# a_977_n1197# a_919_n1109# a_n1753_n6203# sky130_fd_pr__nfet_g5v0d10v5 ad=0.725 pd=5.29 as=0.725 ps=5.29 w=5 l=0.5
X33 a_445_1327# a_345_1239# a_287_1327# a_n1753_n6203# sky130_fd_pr__nfet_g5v0d10v5 ad=0.725 pd=5.29 as=0.725 ps=5.29 w=5 l=0.5
X34 a_n1451_n1109# a_n1551_n1197# a_n1609_n1109# a_n1753_n6203# sky130_fd_pr__nfet_g5v0d10v5 ad=0.725 pd=5.29 as=1.45 ps=10.58 w=5 l=0.5
X35 a_919_n2327# a_819_n2415# a_761_n2327# a_n1753_n6203# sky130_fd_pr__nfet_g5v0d10v5 ad=0.725 pd=5.29 as=0.725 ps=5.29 w=5 l=0.5
X36 a_129_n5981# a_29_n6069# a_n29_n5981# a_n1753_n6203# sky130_fd_pr__nfet_g5v0d10v5 ad=0.725 pd=5.29 as=0.725 ps=5.29 w=5 l=0.5
X37 a_129_2545# a_29_2457# a_n29_2545# a_n1753_n6203# sky130_fd_pr__nfet_g5v0d10v5 ad=0.725 pd=5.29 as=0.725 ps=5.29 w=5 l=0.5
X38 a_1551_1327# a_1451_1239# a_1393_1327# a_n1753_n6203# sky130_fd_pr__nfet_g5v0d10v5 ad=1.45 pd=10.58 as=0.725 ps=5.29 w=5 l=0.5
X39 a_n345_3763# a_n445_3675# a_n503_3763# a_n1753_n6203# sky130_fd_pr__nfet_g5v0d10v5 ad=0.725 pd=5.29 as=0.725 ps=5.29 w=5 l=0.5
X40 a_n1451_1327# a_n1551_1239# a_n1609_1327# a_n1753_n6203# sky130_fd_pr__nfet_g5v0d10v5 ad=0.725 pd=5.29 as=1.45 ps=10.58 w=5 l=0.5
X41 a_n503_109# a_n603_21# a_n661_109# a_n1753_n6203# sky130_fd_pr__nfet_g5v0d10v5 ad=0.725 pd=5.29 as=0.725 ps=5.29 w=5 l=0.5
X42 a_445_n4763# a_345_n4851# a_287_n4763# a_n1753_n6203# sky130_fd_pr__nfet_g5v0d10v5 ad=0.725 pd=5.29 as=0.725 ps=5.29 w=5 l=0.5
X43 a_1077_n2327# a_977_n2415# a_919_n2327# a_n1753_n6203# sky130_fd_pr__nfet_g5v0d10v5 ad=0.725 pd=5.29 as=0.725 ps=5.29 w=5 l=0.5
X44 a_445_2545# a_345_2457# a_287_2545# a_n1753_n6203# sky130_fd_pr__nfet_g5v0d10v5 ad=0.725 pd=5.29 as=0.725 ps=5.29 w=5 l=0.5
X45 a_919_n3545# a_819_n3633# a_761_n3545# a_n1753_n6203# sky130_fd_pr__nfet_g5v0d10v5 ad=0.725 pd=5.29 as=0.725 ps=5.29 w=5 l=0.5
X46 a_n1451_n2327# a_n1551_n2415# a_n1609_n2327# a_n1753_n6203# sky130_fd_pr__nfet_g5v0d10v5 ad=0.725 pd=5.29 as=1.45 ps=10.58 w=5 l=0.5
X47 a_n345_n1109# a_n445_n1197# a_n503_n1109# a_n1753_n6203# sky130_fd_pr__nfet_g5v0d10v5 ad=0.725 pd=5.29 as=0.725 ps=5.29 w=5 l=0.5
X48 a_129_3763# a_29_3675# a_n29_3763# a_n1753_n6203# sky130_fd_pr__nfet_g5v0d10v5 ad=0.725 pd=5.29 as=0.725 ps=5.29 w=5 l=0.5
X49 a_1551_2545# a_1451_2457# a_1393_2545# a_n1753_n6203# sky130_fd_pr__nfet_g5v0d10v5 ad=1.45 pd=10.58 as=0.725 ps=5.29 w=5 l=0.5
X50 a_n345_4981# a_n445_4893# a_n503_4981# a_n1753_n6203# sky130_fd_pr__nfet_g5v0d10v5 ad=0.725 pd=5.29 as=0.725 ps=5.29 w=5 l=0.5
X51 a_n1451_2545# a_n1551_2457# a_n1609_2545# a_n1753_n6203# sky130_fd_pr__nfet_g5v0d10v5 ad=0.725 pd=5.29 as=1.45 ps=10.58 w=5 l=0.5
X52 a_n29_109# a_n129_21# a_n187_109# a_n1753_n6203# sky130_fd_pr__nfet_g5v0d10v5 ad=0.725 pd=5.29 as=0.725 ps=5.29 w=5 l=0.5
X53 a_445_n5981# a_345_n6069# a_287_n5981# a_n1753_n6203# sky130_fd_pr__nfet_g5v0d10v5 ad=0.725 pd=5.29 as=0.725 ps=5.29 w=5 l=0.5
X54 a_1077_n3545# a_977_n3633# a_919_n3545# a_n1753_n6203# sky130_fd_pr__nfet_g5v0d10v5 ad=0.725 pd=5.29 as=0.725 ps=5.29 w=5 l=0.5
X55 a_445_3763# a_345_3675# a_287_3763# a_n1753_n6203# sky130_fd_pr__nfet_g5v0d10v5 ad=0.725 pd=5.29 as=0.725 ps=5.29 w=5 l=0.5
X56 a_n977_1327# a_n1077_1239# a_n1135_1327# a_n1753_n6203# sky130_fd_pr__nfet_g5v0d10v5 ad=0.725 pd=5.29 as=0.725 ps=5.29 w=5 l=0.5
X57 a_919_n4763# a_819_n4851# a_761_n4763# a_n1753_n6203# sky130_fd_pr__nfet_g5v0d10v5 ad=0.725 pd=5.29 as=0.725 ps=5.29 w=5 l=0.5
X58 a_n1451_n3545# a_n1551_n3633# a_n1609_n3545# a_n1753_n6203# sky130_fd_pr__nfet_g5v0d10v5 ad=0.725 pd=5.29 as=1.45 ps=10.58 w=5 l=0.5
X59 a_n345_n2327# a_n445_n2415# a_n503_n2327# a_n1753_n6203# sky130_fd_pr__nfet_g5v0d10v5 ad=0.725 pd=5.29 as=0.725 ps=5.29 w=5 l=0.5
X60 a_129_4981# a_29_4893# a_n29_4981# a_n1753_n6203# sky130_fd_pr__nfet_g5v0d10v5 ad=0.725 pd=5.29 as=0.725 ps=5.29 w=5 l=0.5
X61 a_1551_3763# a_1451_3675# a_1393_3763# a_n1753_n6203# sky130_fd_pr__nfet_g5v0d10v5 ad=1.45 pd=10.58 as=0.725 ps=5.29 w=5 l=0.5
X62 a_1077_1327# a_977_1239# a_919_1327# a_n1753_n6203# sky130_fd_pr__nfet_g5v0d10v5 ad=0.725 pd=5.29 as=0.725 ps=5.29 w=5 l=0.5
X63 a_1393_109# a_1293_21# a_1235_109# a_n1753_n6203# sky130_fd_pr__nfet_g5v0d10v5 ad=0.725 pd=5.29 as=0.725 ps=5.29 w=5 l=0.5
X64 a_n1451_3763# a_n1551_3675# a_n1609_3763# a_n1753_n6203# sky130_fd_pr__nfet_g5v0d10v5 ad=0.725 pd=5.29 as=1.45 ps=10.58 w=5 l=0.5
X65 a_n503_1327# a_n603_1239# a_n661_1327# a_n1753_n6203# sky130_fd_pr__nfet_g5v0d10v5 ad=0.725 pd=5.29 as=0.725 ps=5.29 w=5 l=0.5
X66 a_n819_n1109# a_n919_n1197# a_n977_n1109# a_n1753_n6203# sky130_fd_pr__nfet_g5v0d10v5 ad=0.725 pd=5.29 as=0.725 ps=5.29 w=5 l=0.5
X67 a_1077_n4763# a_977_n4851# a_919_n4763# a_n1753_n6203# sky130_fd_pr__nfet_g5v0d10v5 ad=0.725 pd=5.29 as=0.725 ps=5.29 w=5 l=0.5
X68 a_445_4981# a_345_4893# a_287_4981# a_n1753_n6203# sky130_fd_pr__nfet_g5v0d10v5 ad=0.725 pd=5.29 as=0.725 ps=5.29 w=5 l=0.5
X69 a_n977_2545# a_n1077_2457# a_n1135_2545# a_n1753_n6203# sky130_fd_pr__nfet_g5v0d10v5 ad=0.725 pd=5.29 as=0.725 ps=5.29 w=5 l=0.5
X70 a_919_n5981# a_819_n6069# a_761_n5981# a_n1753_n6203# sky130_fd_pr__nfet_g5v0d10v5 ad=0.725 pd=5.29 as=0.725 ps=5.29 w=5 l=0.5
X71 a_n1451_n4763# a_n1551_n4851# a_n1609_n4763# a_n1753_n6203# sky130_fd_pr__nfet_g5v0d10v5 ad=0.725 pd=5.29 as=1.45 ps=10.58 w=5 l=0.5
X72 a_1077_109# a_977_21# a_919_109# a_n1753_n6203# sky130_fd_pr__nfet_g5v0d10v5 ad=0.725 pd=5.29 as=0.725 ps=5.29 w=5 l=0.5
X73 a_n977_n1109# a_n1077_n1197# a_n1135_n1109# a_n1753_n6203# sky130_fd_pr__nfet_g5v0d10v5 ad=0.725 pd=5.29 as=0.725 ps=5.29 w=5 l=0.5
X74 a_n345_n3545# a_n445_n3633# a_n503_n3545# a_n1753_n6203# sky130_fd_pr__nfet_g5v0d10v5 ad=0.725 pd=5.29 as=0.725 ps=5.29 w=5 l=0.5
X75 a_1551_4981# a_1451_4893# a_1393_4981# a_n1753_n6203# sky130_fd_pr__nfet_g5v0d10v5 ad=1.45 pd=10.58 as=0.725 ps=5.29 w=5 l=0.5
X76 a_1077_2545# a_977_2457# a_919_2545# a_n1753_n6203# sky130_fd_pr__nfet_g5v0d10v5 ad=0.725 pd=5.29 as=0.725 ps=5.29 w=5 l=0.5
X77 a_n1451_4981# a_n1551_4893# a_n1609_4981# a_n1753_n6203# sky130_fd_pr__nfet_g5v0d10v5 ad=0.725 pd=5.29 as=1.45 ps=10.58 w=5 l=0.5
X78 a_n503_2545# a_n603_2457# a_n661_2545# a_n1753_n6203# sky130_fd_pr__nfet_g5v0d10v5 ad=0.725 pd=5.29 as=0.725 ps=5.29 w=5 l=0.5
X79 a_n819_n2327# a_n919_n2415# a_n977_n2327# a_n1753_n6203# sky130_fd_pr__nfet_g5v0d10v5 ad=0.725 pd=5.29 as=0.725 ps=5.29 w=5 l=0.5
X80 a_1235_n1109# a_1135_n1197# a_1077_n1109# a_n1753_n6203# sky130_fd_pr__nfet_g5v0d10v5 ad=0.725 pd=5.29 as=0.725 ps=5.29 w=5 l=0.5
X81 a_1551_109# a_1451_21# a_1393_109# a_n1753_n6203# sky130_fd_pr__nfet_g5v0d10v5 ad=1.45 pd=10.58 as=0.725 ps=5.29 w=5 l=0.5
X82 a_1077_n5981# a_977_n6069# a_919_n5981# a_n1753_n6203# sky130_fd_pr__nfet_g5v0d10v5 ad=0.725 pd=5.29 as=0.725 ps=5.29 w=5 l=0.5
X83 a_n977_3763# a_n1077_3675# a_n1135_3763# a_n1753_n6203# sky130_fd_pr__nfet_g5v0d10v5 ad=0.725 pd=5.29 as=0.725 ps=5.29 w=5 l=0.5
X84 a_603_1327# a_503_1239# a_445_1327# a_n1753_n6203# sky130_fd_pr__nfet_g5v0d10v5 ad=0.725 pd=5.29 as=0.725 ps=5.29 w=5 l=0.5
X85 a_n1451_n5981# a_n1551_n6069# a_n1609_n5981# a_n1753_n6203# sky130_fd_pr__nfet_g5v0d10v5 ad=0.725 pd=5.29 as=1.45 ps=10.58 w=5 l=0.5
X86 a_n29_1327# a_n129_1239# a_n187_1327# a_n1753_n6203# sky130_fd_pr__nfet_g5v0d10v5 ad=0.725 pd=5.29 as=0.725 ps=5.29 w=5 l=0.5
X87 a_n345_n4763# a_n445_n4851# a_n503_n4763# a_n1753_n6203# sky130_fd_pr__nfet_g5v0d10v5 ad=0.725 pd=5.29 as=0.725 ps=5.29 w=5 l=0.5
X88 a_n977_n2327# a_n1077_n2415# a_n1135_n2327# a_n1753_n6203# sky130_fd_pr__nfet_g5v0d10v5 ad=0.725 pd=5.29 as=0.725 ps=5.29 w=5 l=0.5
X89 a_1077_3763# a_977_3675# a_919_3763# a_n1753_n6203# sky130_fd_pr__nfet_g5v0d10v5 ad=0.725 pd=5.29 as=0.725 ps=5.29 w=5 l=0.5
X90 a_1393_n1109# a_1293_n1197# a_1235_n1109# a_n1753_n6203# sky130_fd_pr__nfet_g5v0d10v5 ad=0.725 pd=5.29 as=0.725 ps=5.29 w=5 l=0.5
X91 a_n503_3763# a_n603_3675# a_n661_3763# a_n1753_n6203# sky130_fd_pr__nfet_g5v0d10v5 ad=0.725 pd=5.29 as=0.725 ps=5.29 w=5 l=0.5
X92 a_n819_n3545# a_n919_n3633# a_n977_n3545# a_n1753_n6203# sky130_fd_pr__nfet_g5v0d10v5 ad=0.725 pd=5.29 as=0.725 ps=5.29 w=5 l=0.5
X93 a_1235_n2327# a_1135_n2415# a_1077_n2327# a_n1753_n6203# sky130_fd_pr__nfet_g5v0d10v5 ad=0.725 pd=5.29 as=0.725 ps=5.29 w=5 l=0.5
X94 a_761_109# a_661_21# a_603_109# a_n1753_n6203# sky130_fd_pr__nfet_g5v0d10v5 ad=0.725 pd=5.29 as=0.725 ps=5.29 w=5 l=0.5
X95 a_603_n1109# a_503_n1197# a_445_n1109# a_n1753_n6203# sky130_fd_pr__nfet_g5v0d10v5 ad=0.725 pd=5.29 as=0.725 ps=5.29 w=5 l=0.5
X96 a_n977_4981# a_n1077_4893# a_n1135_4981# a_n1753_n6203# sky130_fd_pr__nfet_g5v0d10v5 ad=0.725 pd=5.29 as=0.725 ps=5.29 w=5 l=0.5
X97 a_603_2545# a_503_2457# a_445_2545# a_n1753_n6203# sky130_fd_pr__nfet_g5v0d10v5 ad=0.725 pd=5.29 as=0.725 ps=5.29 w=5 l=0.5
X98 a_n29_2545# a_n129_2457# a_n187_2545# a_n1753_n6203# sky130_fd_pr__nfet_g5v0d10v5 ad=0.725 pd=5.29 as=0.725 ps=5.29 w=5 l=0.5